---- qbsp / ericw-tools v0.18.1 ----
Input file: BeesNest.map
Output file: BeesNest.bsp

---- LoadMapFile ----
         1236 faces
          206 brushes
          137 entities
           18 unique texnames
           54 texinfo

Opened WAD: ../wads/prototype_1_2.wad
Opened WAD: ../wads/START.WAD
Processing hull 0...
---- Brush_LoadEntity ----
          198 brushes
          291 planes
---- CSGFaces ----
         1188 brushfaces
         2679 csgfaces
         2204 mergedfaces
---- SolidBSP ----
         2509 split nodes
         1007 solid leafs
         1472 empty leafs
           31 water leafs
            0 detail leafs
            0 detail illusionary leafs
            0 detail fence leafs
            0 illusionary visblocker leafs
         5698 leaffaces
         5380 nodefaces
---- Portalize ----
         1503 vis leafs
         1503 vis clusters
         4197 vis portals
---- FillOutside ----
         1138 outleafs
---- MergeAll ----
          821 mergefaces
---- SolidBSP ----
          558 split nodes
          317 solid leafs
          219 empty leafs
           23 water leafs
            0 detail leafs
            0 detail illusionary leafs
            0 detail fence leafs
            0 illusionary visblocker leafs
         1575 leaffaces
         1293 nodefaces
---- Portalize ----
          242 vis leafs
          242 vis clusters
          590 vis portals
---- Tjunc ----
         1208 world edges
         4550 edge points
         1206 edges added by tjunctions
            0 faces added by tjunctions
---- MakeFaceEdges ----
---- GrowRegions ----
Processing hull 1...
Processing hull 2...
*** WARNING 16: Texture __TB_empty not found
---- WriteBSPFile ----
Wrote BeesNest.bsp
          625 planes            12500
         1849 vertexes          22188
          606 nodes             14544
           44 texinfo            1760
         1341 faces             26820
         1518 clipnodes         12144
          291 leafs              8148
         1623 marksurfaces       3246
         6560 surfedges         26240
         3281 edges             13124
           18 textures         119908
              lightdata             0
              visdata               0
              entdata            9420

0.532 seconds elapsed
Peak memory usage: 16305238 (15.5M)
