---- qbsp / ericw-tools v0.18.1 ----
Input file: BeesNest.map
Output file: BeesNest.bsp

---- LoadMapFile ----
         1445 faces
          238 brushes
          156 entities
           17 unique texnames
           52 texinfo

Opened WAD: ../wads/prototype_1_2.wad
Opened WAD: ../wads/START.WAD
Processing hull 0...
---- Brush_LoadEntity ----
          230 brushes
          398 planes
---- CSGFaces ----
         1397 brushfaces
         2904 csgfaces
         2371 mergedfaces
---- SolidBSP ----
         2545 split nodes
         1019 solid leafs
         1497 empty leafs
           30 water leafs
            0 detail leafs
            0 detail illusionary leafs
            0 detail fence leafs
            0 illusionary visblocker leafs
         5940 leaffaces
         5592 nodefaces
---- Portalize ----
         1527 vis leafs
         1527 vis clusters
         4305 vis portals
---- FillOutside ----
         1113 outleafs
---- MergeAll ----
         1003 mergefaces
---- SolidBSP ----
          650 split nodes
          347 solid leafs
          281 empty leafs
           23 water leafs
            0 detail leafs
            0 detail illusionary leafs
            0 detail fence leafs
            0 illusionary visblocker leafs
         1853 leaffaces
         1493 nodefaces
---- Portalize ----
          304 vis leafs
          304 vis clusters
          784 vis portals
---- Tjunc ----
         1516 world edges
         5353 edge points
         1314 edges added by tjunctions
            0 faces added by tjunctions
---- MakeFaceEdges ----
---- GrowRegions ----
Processing hull 1...
Processing hull 2...
*** WARNING 16: Texture __TB_empty not found
---- WriteBSPFile ----
Wrote BeesNest.bsp
          890 planes            17800
         2113 vertexes          25356
          698 nodes             16752
           43 texinfo            1720
         1541 faces             30820
         1701 clipnodes         13608
          353 leafs              9884
         1901 marksurfaces       3802
         7486 surfedges         29944
         3744 edges             14976
           17 textures         118952
              lightdata             0
              visdata               0
              entdata           10512

0.726 seconds elapsed
Peak memory usage: 17857574 (17.0M)
