---- qbsp / ericw-tools v0.18.1 ----
Input file: BeesNest.map
Output file: BeesNest.bsp

---- LoadMapFile ----
         1571 faces
          259 brushes
          162 entities
           17 unique texnames
           52 texinfo

Opened WAD: ../wads/prototype_1_2.wad
Opened WAD: ../wads/START.WAD
Processing hull 0...
---- Brush_LoadEntity ----
          251 brushes
          435 planes
---- CSGFaces ----
         1523 brushfaces
         3267 csgfaces
         2596 mergedfaces
---- SolidBSP ----
         2965 split nodes
         1211 solid leafs
         1728 empty leafs
           27 water leafs
            0 detail leafs
            0 detail illusionary leafs
            0 detail fence leafs
            0 illusionary visblocker leafs
         6600 leaffaces
         6217 nodefaces
---- Portalize ----
         1755 vis leafs
         1755 vis clusters
         4954 vis portals
---- FillOutside ----
         1294 outleafs
---- MergeAll ----
         1100 mergefaces
---- SolidBSP ----
          720 split nodes
          397 solid leafs
          301 empty leafs
           23 water leafs
            0 detail leafs
            0 detail illusionary leafs
            0 detail fence leafs
            0 illusionary visblocker leafs
         1959 leaffaces
         1617 nodefaces
---- Portalize ----
          324 vis leafs
          324 vis clusters
          820 vis portals
---- Tjunc ----
         1625 world edges
         5785 edge points
         1389 edges added by tjunctions
            0 faces added by tjunctions
---- MakeFaceEdges ----
---- GrowRegions ----
Processing hull 1...
Processing hull 2...
*** WARNING 16: Texture __TB_empty not found
---- WriteBSPFile ----
Wrote BeesNest.bsp
          933 planes            18660
         2276 vertexes          27312
          768 nodes             18432
           43 texinfo            1720
         1665 faces             33300
         1828 clipnodes         14624
          373 leafs             10444
         2007 marksurfaces       4014
         8058 surfedges         32232
         4030 edges             16120
           17 textures         118952
              lightdata             0
              visdata               0
              entdata           10809

0.701 seconds elapsed
Peak memory usage: 19776766 (18.9M)
